/*--------------------------------*- C++ -*----------------------------------*\
| =========                 |                                                 |
| \\      /  F ield         | OpenFOAM: The Open Source CFD Toolbox           |
|  \\    /   O peration     |                                                 |
|   \\  /    A nd           | Copyright (C) 2018 Ehsan Madadi-Kandjani        |
|    \\/     M anipulation  |                                                 |
\*---------------------------------------------------------------------------*/
FoamFile
{
    version     2.0;
    format    ascii;
    class       dictionary;
    object      blockMeshDict;
}
// * * * * * * * * * * * * * * * * * * * * * * * * * * * * * * * * * * * * * //
convertToMeters 1.0;
vertices
(
(-8.50014902463 -0.0321447832314 0)
(-0.368019791077 -8.0 0)
(0.500149024632 -8.0 0)
(16.5001490246 -8.0 0)
(16.5001490246 -0.0349196384831 0)
(16.5001490246 8.0 0)
(0.500149024632 8.0 0)
(-0.140515957271 8.0 0)
(-0.500149024632 -0.0321447832314 -0.0)
(-0.140515957271 0.0639086427491 0.0)
(-0.368019791077 -0.0639086427491 -0.0)
(0.500149024632 -0.0349196384831 -0.0)
(-8.50014902463 -0.0321447832314 0.2)
(-0.368019791077 -8.0 0.2)
(0.500149024632 -8.0 0.2)
(16.5001490246 -8.0 0.2)
(16.5001490246 -0.0349196384831 0.2)
(16.5001490246 8.0 0.2)
(0.500149024632 8.0 0.2)
(-0.140515957271 8.0 0.2)
(-0.500149024632 -0.0321447832314 0.2)
(-0.140515957271 0.0639086427491 0.2)
(-0.368019791077 -0.0639086427491 0.2)
(0.500149024632 -0.0349196384831 0.2)
);
blocks
(
// Block 0
hex (0 1 10 8 12 13 22 20)
square
(50 100 1)
simpleGrading
(5 0.02 1)

// Block 1
hex (1 2 11 10 13 14 23 22)
square
(71 100 1)
simpleGrading
(0.5 0.02 1)

// Block 2
hex (2 3 4 11 14 15 16 23)
square
(100 100 1)
simpleGrading
(100 0.02 1)

// Block 3
hex (11 4 5 6 23 16 17 18)
square
(100 100 1)
simpleGrading
(100 50 1)

// Block 4
hex (9 11 6 7 21 23 18 19)
square
(71 100 1)
simpleGrading
(0.5 50 1)

// Block 5
hex (8 9 7 0 20 21 19 12)
square
(50 100 1)
simpleGrading
(5 50 1)

);
edges
(
arc 0 7 (-6.15700327412 5.65685424949 0)
arc 0 1 (-6.15700327412 -5.65685424949 0)
arc 12 19 (-6.15700327412 5.65685424949 0.2)
arc 12 13 (-6.15700327412 -5.65685424949 0.2)
spline 8 10
(
(-0.500149024632 -0.0321447832314 -0.0)
(-0.499850975368 -0.0349196384831 -0.0)
(-0.499059486471 -0.0375958362434 -0.0)
(-0.497784205983 -0.0401365768541 -0.0)
(-0.496027948734 -0.0425418503814 -0.0)
(-0.493794006491 -0.0448118299513 -0.0)
(-0.49108613955 -0.0469468720096 -0.0)
(-0.487908566437 -0.0489475177931 -0.0)
(-0.484265951827 -0.0508144959413 -0.0)
(-0.480163392824 -0.0525487261542 -0.0)
(-0.475606403738 -0.0541513237815 -0.0)
(-0.470600899572 -0.0556236052064 -0.0)
(-0.465153178388 -0.0569670938722 -0.0)
(-0.459269902813 -0.0581835267802 -0.0)
(-0.452958080884 -0.0592748612751 -0.0)
(-0.4462250465 -0.060243281922 -0.0)
(-0.439078439723 -0.0610912072686 -0.0)
(-0.431526187169 -0.0618212962806 -0.0)
(-0.423576482751 -0.0624364542334 -0.0)
(-0.415237768997 -0.0629398378421 -0.0)
(-0.406518719177 -0.0633348594147 -0.0)
(-0.397428220435 -0.063625189816 -0.0)
(-0.387975358133 -0.06381476004 -0.0)
(-0.378169401548 -0.063907761199 -0.0)
(-0.368019791077 -0.0639086427491 -0.0)
)
spline 10 11
(
(-0.368019791077 -0.0639086427491 -0.0)
(-0.357536127051 -0.0638221087944 -0.0)
(-0.346728160234 -0.0636531123246 -0.0)
(-0.335605784057 -0.063406847271 -0.0)
(-0.324179028592 -0.0630887382842 -0.0)
(-0.312458056259 -0.0627044281685 -0.0)
(-0.3004531592 -0.0622597629361 -0.0)
(-0.288174758236 -0.0617607744725 -0.0)
(-0.275633403315 -0.0612136608411 -0.0)
(-0.262839775276 -0.0606247642837 -0.0)
(-0.249804688807 -0.0600005470095 -0.0)
(-0.236539096375 -0.0593475648961 -0.0)
(-0.223054092951 -0.0586724392617 -0.0)
(-0.209360921318 -0.0579818268945 -0.0)
(-0.195470977721 -0.0572823885601 -0.0)
(-0.181395817656 -0.0565807562306 -0.0)
(-0.167147161562 -0.0558834993069 -0.0)
(-0.152736900198 -0.0551970901271 -0.0)
(-0.138177099505 -0.0545278690695 -0.0)
(-0.123480004736 -0.0538820095764 -0.0)
(-0.108658043697 -0.0532654834308 -0.0)
(-0.0936226091025 -0.052678728382 -0.0)
(-0.0783446436155 -0.0520799227275 -0.0)
(-0.0629854017226 -0.0514621886776 -0.0)
(-0.0475592882573 -0.0508294904952 -0.0)
(-0.0320808204691 -0.0501856639588 -0.0)
(-0.0165646168739 -0.0495343956832 -0.0)
(-0.00102538547076 -0.0488792042043 -0.0)
(0.0145220886489 -0.0482234230102 -0.0)
(0.0300629562654 -0.0475701856736 -0.0)
(0.045582317525 -0.0469224132079 -0.0)
(0.061065235919 -0.0462828037412 -0.0)
(0.0764967526939 -0.045653824566 -0.0)
(0.0918619016384 -0.0450377065918 -0.0)
(0.10714572419 -0.0444364411968 -0.0)
(0.122333284808 -0.0438517794393 -0.0)
(0.137409686545 -0.043285233563 -0.0)
(0.152360086782 -0.0427380806987 -0.0)
(0.167169713058 -0.0422113686411 -0.0)
(0.18182387896 -0.0417059235522 -0.0)
(0.196308000023 -0.0412223594234 -0.0)
(0.210607609607 -0.0407610891102 -0.0)
(0.224708374731 -0.0403223367384 -0.0)
(0.238596111813 -0.0399061512681 -0.0)
(0.252256802328 -0.0395124209949 -0.0)
(0.265676608349 -0.0391408887645 -0.0)
(0.278841887968 -0.0387911676742 -0.0)
(0.291739210603 -0.0384627570387 -0.0)
(0.304355372176 -0.0381550584045 -0.0)
(0.316677410176 -0.0378673914046 -0.0)
(0.328692618605 -0.0375990092604 -0.0)
(0.340388562817 -0.0373491137496 -0.0)
(0.351753094257 -0.0371168694788 -0.0)
(0.362774365095 -0.0369014173168 -0.0)
(0.373440842764 -0.0367018868678 -0.0)
(0.38374132441 -0.036517407882 -0.0)
(0.393664951222 -0.0363471205289 -0.0)
(0.403201222661 -0.0361901844774 -0.0)
(0.412340010558 -0.0360457867527 -0.0)
(0.421071573054 -0.0359131483616 -0.0)
(0.429386568373 -0.0357915297004 -0.0)
(0.437276068374 -0.0356802347797 -0.0)
(0.44473157186 -0.0355786143203 -0.0)
(0.451745017586 -0.0354860677916 -0.0)
(0.458308796918 -0.0354020444798 -0.0)
(0.464415766096 -0.0353260436849 -0.0)
(0.47005925803 -0.0352576141586 -0.0)
(0.475233093568 -0.0351963529004 -0.0)
(0.479931592188 -0.0351419034375 -0.0)
(0.484149582025 -0.0350939537138 -0.0)
(0.487882409181 -0.0350522337165 -0.0)
(0.49112594626 -0.0350165129629 -0.0)
(0.493876600052 -0.0349865979668 -0.0)
(0.496131318327 -0.0349623297955 -0.0)
(0.497887595668 -0.0349435818191 -0.0)
(0.499143478322 -0.0349302577401 -0.0)
(0.499897568002 -0.0349222899801 -0.0)
(0.500149024632 -0.0349196384831 -0.0)
)
spline 8 9
(
(-0.500149024632 -0.0321447832314 -0.0)
(-0.499944473182 -0.0293085325229 -0.0)
(-0.499235966606 -0.0264122815252 -0.0)
(-0.49802264556 -0.0234581595197 -0.0)
(-0.496304151782 -0.0204490201953 -0.0)
(-0.494080635029 -0.0173884270047 -0.0)
(-0.491352760848 -0.0142806337072 -0.0)
(-0.488121719042 -0.0111305602583 -0.0)
(-0.484389232675 -0.00794376424475 -0.0)
(-0.48015756746 -0.0047264080935 -0.0)
(-0.475429541303 -0.00148522231979 -0.0)
(-0.470208533812 0.00177253489453 0.0)
(-0.464498495537 0.0050391214725 0.0)
(-0.458303956702 0.00830635821975 0.0)
(-0.451630035202 0.0115656782435 0.0)
(-0.444482443612 0.0148081786304 0.0)
(-0.43686749499 0.018024673986 0.0)
(-0.428792107241 0.0212057514282 0.0)
(-0.420263805834 0.0243418266194 0.0)
(-0.411290724676 0.0274232004201 0.0)
(-0.401881604979 0.0304401157448 0.0)
(-0.392045791965 0.0333828142099 0.0)
(-0.38179322929 0.0362415921666 0.0)
(-0.371134451107 0.0390068557286 0.0)
(-0.360080571689 0.0416691744177 0.0)
(-0.348643272609 0.0442193330718 0.0)
(-0.336834787468 0.0466483816819 0.0)
(-0.324667884226 0.0489476828513 0.0)
(-0.31215584519 0.0511089566003 0.0)
(-0.299312444793 0.0531243222693 0.0)
(-0.286151925274 0.0549863373102 0.0)
(-0.272688970439 0.0566880327892 0.0)
(-0.25893867768 0.0582229454621 0.0)
(-0.244916528464 0.0595851463211 0.0)
(-0.230638357525 0.0607692655507 0.0)
(-0.216120320983 0.0617705138658 0.0)
(-0.20137886365 0.0625847002462 0.0)
(-0.186430685765 0.0632082461124 0.0)
(-0.17129270942 0.0636381960264 0.0)
(-0.155982044913 0.063872225028 0.0)
(-0.140515957271 0.0639086427491 0.0)
)
spline 9 11
(
(-0.140515957271 0.0639086427491 0.0)
(-0.124911833166 0.0637463944711 0.0)
(-0.109187148436 0.0633850593135 0.0)
(-0.0934606562199 0.0628306052367 0.0)
(-0.0777917721614 0.0621352037703 0.0)
(-0.0620497825783 0.0613131824886 0.0)
(-0.0462509757978 0.0603672663452 0.0)
(-0.0304116497969 0.0593004735741 0.0)
(-0.0145480929409 0.0581161002639 0.0)
(0.00132343473413 0.0568177050158 0.0)
(0.0171867196926 0.0554090938541 0.0)
(0.0330256125273 0.0538943055321 0.0)
(0.0488240450569 0.0522775973548 0.0)
(0.0645660469087 0.050563431616 0.0)
(0.0802357616097 0.0487564627181 0.0)
(0.0958174622107 0.0468615250205 0.0)
(0.111295566469 0.0448836214347 0.0)
(0.12665465162 0.0428279127595 0.0)
(0.141879468758 0.0406997077264 0.0)
(0.156954956857 0.0385044537012 0.0)
(0.171866256451 0.0362477279688 0.0)
(0.186598722988 0.0339352295103 0.0)
(0.201137939876 0.0315727711632 0.0)
(0.215469731221 0.0291662720466 0.0)
(0.229580174272 0.0267217501194 0.0)
(0.243455611552 0.0242453147379 0.0)
(0.257082662685 0.0217431590704 0.0)
(0.270448235894 0.0192215522311 0.0)
(0.283539539148 0.0166868309969 0.0)
(0.296344090953 0.0141453909764 0.0)
(0.308849730741 0.0116036771117 0.0)
(0.321044628836 0.00906817340469 0.0)
(0.332917295982 0.0065453917749 0.0)
(0.344456592375 0.0040418599719 0.0)
(0.355651736192 0.00156410848615 0.0)
(0.36649231159 -0.00088134357904 -0.0)
(0.37696827613 -0.00328800368924 -0.0)
(0.387069967629 -0.00564942210665 -0.0)
(0.396788110417 -0.00795920913363 -0.0)
(0.406113820977 -0.0102110533187 -0.0)
(0.41503861298 -0.0123987405498 -0.0)
(0.423554401711 -0.0145161739371 -0.0)
(0.431653507895 -0.0165573943687 -0.0)
(0.439328660934 -0.0185166016036 -0.0)
(0.446573001592 -0.0203881757472 -0.0)
(0.453380084144 -0.0221666989447 -0.0)
(0.459743878029 -0.0238469771108 -0.0)
(0.465658769055 -0.0254240615072 -0.0)
(0.471119560188 -0.0268932699726 -0.0)
(0.476121471991 -0.028250207605 -0.0)
(0.480660142752 -0.0294907866966 -0.0)
(0.484731628367 -0.0306112457232 -0.0)
(0.488332402021 -0.0316081671947 -0.0)
(0.491459353732 -0.0324784941831 -0.0)
(0.494109789806 -0.0332195453542 -0.0)
(0.496281432251 -0.0338290283424 -0.0)
(0.497972418198 -0.0343050513252 -0.0)
(0.499181299369 -0.0346461326722 -0.0)
(0.499907041627 -0.0348512085618 -0.0)
(0.500149024632 -0.0349196384831 -0.0)
(0.500149024632 -0.0349196384831 -0.0)
)
BSpline 20 22
(
(-0.500149024632 -0.0321447832314 0.2)
(-0.499850975368 -0.0349196384831 0.2)
(-0.499059486471 -0.0375958362434 0.2)
(-0.497784205983 -0.0401365768541 0.2)
(-0.496027948734 -0.0425418503814 0.2)
(-0.493794006491 -0.0448118299513 0.2)
(-0.49108613955 -0.0469468720096 0.2)
(-0.487908566437 -0.0489475177931 0.2)
(-0.484265951827 -0.0508144959413 0.2)
(-0.480163392824 -0.0525487261542 0.2)
(-0.475606403738 -0.0541513237815 0.2)
(-0.470600899572 -0.0556236052064 0.2)
(-0.465153178388 -0.0569670938722 0.2)
(-0.459269902813 -0.0581835267802 0.2)
(-0.452958080884 -0.0592748612751 0.2)
(-0.4462250465 -0.060243281922 0.2)
(-0.439078439723 -0.0610912072686 0.2)
(-0.431526187169 -0.0618212962806 0.2)
(-0.423576482751 -0.0624364542334 0.2)
(-0.415237768997 -0.0629398378421 0.2)
(-0.406518719177 -0.0633348594147 0.2)
(-0.397428220435 -0.063625189816 0.2)
(-0.387975358133 -0.06381476004 0.2)
(-0.378169401548 -0.063907761199 0.2)
(-0.368019791077 -0.0639086427491 0.2)
)
BSpline 22 23
(
(-0.368019791077 -0.0639086427491 0.2)
(-0.357536127051 -0.0638221087944 0.2)
(-0.346728160234 -0.0636531123246 0.2)
(-0.335605784057 -0.063406847271 0.2)
(-0.324179028592 -0.0630887382842 0.2)
(-0.312458056259 -0.0627044281685 0.2)
(-0.3004531592 -0.0622597629361 0.2)
(-0.288174758236 -0.0617607744725 0.2)
(-0.275633403315 -0.0612136608411 0.2)
(-0.262839775276 -0.0606247642837 0.2)
(-0.249804688807 -0.0600005470095 0.2)
(-0.236539096375 -0.0593475648961 0.2)
(-0.223054092951 -0.0586724392617 0.2)
(-0.209360921318 -0.0579818268945 0.2)
(-0.195470977721 -0.0572823885601 0.2)
(-0.181395817656 -0.0565807562306 0.2)
(-0.167147161562 -0.0558834993069 0.2)
(-0.152736900198 -0.0551970901271 0.2)
(-0.138177099505 -0.0545278690695 0.2)
(-0.123480004736 -0.0538820095764 0.2)
(-0.108658043697 -0.0532654834308 0.2)
(-0.0936226091025 -0.052678728382 0.2)
(-0.0783446436155 -0.0520799227275 0.2)
(-0.0629854017226 -0.0514621886776 0.2)
(-0.0475592882573 -0.0508294904952 0.2)
(-0.0320808204691 -0.0501856639588 0.2)
(-0.0165646168739 -0.0495343956832 0.2)
(-0.00102538547076 -0.0488792042043 0.2)
(0.0145220886489 -0.0482234230102 0.2)
(0.0300629562654 -0.0475701856736 0.2)
(0.045582317525 -0.0469224132079 0.2)
(0.061065235919 -0.0462828037412 0.2)
(0.0764967526939 -0.045653824566 0.2)
(0.0918619016384 -0.0450377065918 0.2)
(0.10714572419 -0.0444364411968 0.2)
(0.122333284808 -0.0438517794393 0.2)
(0.137409686545 -0.043285233563 0.2)
(0.152360086782 -0.0427380806987 0.2)
(0.167169713058 -0.0422113686411 0.2)
(0.18182387896 -0.0417059235522 0.2)
(0.196308000023 -0.0412223594234 0.2)
(0.210607609607 -0.0407610891102 0.2)
(0.224708374731 -0.0403223367384 0.2)
(0.238596111813 -0.0399061512681 0.2)
(0.252256802328 -0.0395124209949 0.2)
(0.265676608349 -0.0391408887645 0.2)
(0.278841887968 -0.0387911676742 0.2)
(0.291739210603 -0.0384627570387 0.2)
(0.304355372176 -0.0381550584045 0.2)
(0.316677410176 -0.0378673914046 0.2)
(0.328692618605 -0.0375990092604 0.2)
(0.340388562817 -0.0373491137496 0.2)
(0.351753094257 -0.0371168694788 0.2)
(0.362774365095 -0.0369014173168 0.2)
(0.373440842764 -0.0367018868678 0.2)
(0.38374132441 -0.036517407882 0.2)
(0.393664951222 -0.0363471205289 0.2)
(0.403201222661 -0.0361901844774 0.2)
(0.412340010558 -0.0360457867527 0.2)
(0.421071573054 -0.0359131483616 0.2)
(0.429386568373 -0.0357915297004 0.2)
(0.437276068374 -0.0356802347797 0.2)
(0.44473157186 -0.0355786143203 0.2)
(0.451745017586 -0.0354860677916 0.2)
(0.458308796918 -0.0354020444798 0.2)
(0.464415766096 -0.0353260436849 0.2)
(0.47005925803 -0.0352576141586 0.2)
(0.475233093568 -0.0351963529004 0.2)
(0.479931592188 -0.0351419034375 0.2)
(0.484149582025 -0.0350939537138 0.2)
(0.487882409181 -0.0350522337165 0.2)
(0.49112594626 -0.0350165129629 0.2)
(0.493876600052 -0.0349865979668 0.2)
(0.496131318327 -0.0349623297955 0.2)
(0.497887595668 -0.0349435818191 0.2)
(0.499143478322 -0.0349302577401 0.2)
(0.499897568002 -0.0349222899801 0.2)
(0.500149024632 -0.0349196384831 0.2)
)
BSpline 20 21
(
(-0.500149024632 -0.0321447832314 0.2)
(-0.499944473182 -0.0293085325229 0.2)
(-0.499235966606 -0.0264122815252 0.2)
(-0.49802264556 -0.0234581595197 0.2)
(-0.496304151782 -0.0204490201953 0.2)
(-0.494080635029 -0.0173884270047 0.2)
(-0.491352760848 -0.0142806337072 0.2)
(-0.488121719042 -0.0111305602583 0.2)
(-0.484389232675 -0.00794376424475 0.2)
(-0.48015756746 -0.0047264080935 0.2)
(-0.475429541303 -0.00148522231979 0.2)
(-0.470208533812 0.00177253489453 0.2)
(-0.464498495537 0.0050391214725 0.2)
(-0.458303956702 0.00830635821975 0.2)
(-0.451630035202 0.0115656782435 0.2)
(-0.444482443612 0.0148081786304 0.2)
(-0.43686749499 0.018024673986 0.2)
(-0.428792107241 0.0212057514282 0.2)
(-0.420263805834 0.0243418266194 0.2)
(-0.411290724676 0.0274232004201 0.2)
(-0.401881604979 0.0304401157448 0.2)
(-0.392045791965 0.0333828142099 0.2)
(-0.38179322929 0.0362415921666 0.2)
(-0.371134451107 0.0390068557286 0.2)
(-0.360080571689 0.0416691744177 0.2)
(-0.348643272609 0.0442193330718 0.2)
(-0.336834787468 0.0466483816819 0.2)
(-0.324667884226 0.0489476828513 0.2)
(-0.31215584519 0.0511089566003 0.2)
(-0.299312444793 0.0531243222693 0.2)
(-0.286151925274 0.0549863373102 0.2)
(-0.272688970439 0.0566880327892 0.2)
(-0.25893867768 0.0582229454621 0.2)
(-0.244916528464 0.0595851463211 0.2)
(-0.230638357525 0.0607692655507 0.2)
(-0.216120320983 0.0617705138658 0.2)
(-0.20137886365 0.0625847002462 0.2)
(-0.186430685765 0.0632082461124 0.2)
(-0.17129270942 0.0636381960264 0.2)
(-0.155982044913 0.063872225028 0.2)
(-0.140515957271 0.0639086427491 0.2)
)
BSpline 21 23
(
(-0.140515957271 0.0639086427491 0.2)
(-0.124911833166 0.0637463944711 0.2)
(-0.109187148436 0.0633850593135 0.2)
(-0.0934606562199 0.0628306052367 0.2)
(-0.0777917721614 0.0621352037703 0.2)
(-0.0620497825783 0.0613131824886 0.2)
(-0.0462509757978 0.0603672663452 0.2)
(-0.0304116497969 0.0593004735741 0.2)
(-0.0145480929409 0.0581161002639 0.2)
(0.00132343473413 0.0568177050158 0.2)
(0.0171867196926 0.0554090938541 0.2)
(0.0330256125273 0.0538943055321 0.2)
(0.0488240450569 0.0522775973548 0.2)
(0.0645660469087 0.050563431616 0.2)
(0.0802357616097 0.0487564627181 0.2)
(0.0958174622107 0.0468615250205 0.2)
(0.111295566469 0.0448836214347 0.2)
(0.12665465162 0.0428279127595 0.2)
(0.141879468758 0.0406997077264 0.2)
(0.156954956857 0.0385044537012 0.2)
(0.171866256451 0.0362477279688 0.2)
(0.186598722988 0.0339352295103 0.2)
(0.201137939876 0.0315727711632 0.2)
(0.215469731221 0.0291662720466 0.2)
(0.229580174272 0.0267217501194 0.2)
(0.243455611552 0.0242453147379 0.2)
(0.257082662685 0.0217431590704 0.2)
(0.270448235894 0.0192215522311 0.2)
(0.283539539148 0.0166868309969 0.2)
(0.296344090953 0.0141453909764 0.2)
(0.308849730741 0.0116036771117 0.2)
(0.321044628836 0.00906817340469 0.2)
(0.332917295982 0.0065453917749 0.2)
(0.344456592375 0.0040418599719 0.2)
(0.355651736192 0.00156410848615 0.2)
(0.36649231159 -0.00088134357904 0.2)
(0.37696827613 -0.00328800368924 0.2)
(0.387069967629 -0.00564942210665 0.2)
(0.396788110417 -0.00795920913363 0.2)
(0.406113820977 -0.0102110533187 0.2)
(0.41503861298 -0.0123987405498 0.2)
(0.423554401711 -0.0145161739371 0.2)
(0.431653507895 -0.0165573943687 0.2)
(0.439328660934 -0.0185166016036 0.2)
(0.446573001592 -0.0203881757472 0.2)
(0.453380084144 -0.0221666989447 0.2)
(0.459743878029 -0.0238469771108 0.2)
(0.465658769055 -0.0254240615072 0.2)
(0.471119560188 -0.0268932699726 0.2)
(0.476121471991 -0.028250207605 0.2)
(0.480660142752 -0.0294907866966 0.2)
(0.484731628367 -0.0306112457232 0.2)
(0.488332402021 -0.0316081671947 0.2)
(0.491459353732 -0.0324784941831 0.2)
(0.494109789806 -0.0332195453542 0.2)
(0.496281432251 -0.0338290283424 0.2)
(0.497972418198 -0.0343050513252 0.2)
(0.499181299369 -0.0346461326722 0.2)
(0.499907041627 -0.0348512085618 0.2)
(0.500149024632 -0.0349196384831 0.2)
(0.500149024632 -0.0349196384831 0.2)
)
);
boundary
(
    
    inlet
{
        type patch;
faces
(
        (7 0 12 19)
        (0 1 13 12)
    );
}
    
    outlet
{
        type patch;
faces
(
        (4 5 17 16)
        (3 4 16 15)
        (6 7 19 18)
        (5 6 18 17)
        (2 3 15 14)
        (1 2 14 13)
    );
}
    
    walls
{
        type wall;
faces
(
        (8 10 22 20)
        (10 11 23 22)
        (8 9 21 20)
        (9 11 23 21)
    );
}
    
    frontAndBack
{
        type empty;
faces
(
        (8 0 1 10)
        (11 10 1 2)
        (4 11 2 3)
        (7 0 8 9)
        (6 7 9 11)
        (5 6 11 4)
        (20 12 13 22)
        (23 22 13 14)
        (16 23 14 15)
        (19 12 20 21)
        (18 19 21 23)
        (17 18 23 16)
    );
}
);

mergePatchPairs
(
);
/*--------------------------------*- C++ -*----------------------------------*\
| =========                 |                                                 |
| \\      /  F ield         | OpenFOAM: The Open Source CFD Toolbox           |
|  \\    /   O peration     |                                                 |
|   \\  /    A nd           | Copyright (C) 2018 Ehsan Madadi-Kandjani        |
|    \\/     M anipulation  |                                                 |
\*---------------------------------------------------------------------------*/
FoamFile
{
    version     2.0;
    format    ascii;
    class       dictionary;
    object      blockMeshDict;
}
// * * * * * * * * * * * * * * * * * * * * * * * * * * * * * * * * * * * * * //
convertToMeters 1.0;
vertices
(
(-8.0 0.0 0.0)
(-0.00117441010245 -8.0 0.0)
(0.5 -8.0 0.0)
(16.5 -8.0 0.0)
(16.5 0.0 0.0)
(16.5 8.0 0.0)
(0.5 8.0 0.0)
(0.00117441010244 8.0 0.0)
(-0.5 -0.05284845461 0.0)
(0.00117441010244 0.0388888888889 0.0)
(-0.00117441010245 -0.0668080203312 0.0)
(0.5 -0.05284845461 0.0)
(-8.0 0.0 0.2)
(-0.00117441010245 -8.0 0.2)
(0.5 -8.0 0.2)
(16.5 -8.0 0.2)
(16.5 0.0 0.2)
(16.5 8.0 0.2)
(0.5 8.0 0.2)
(0.00117441010244 8.0 0.2)
(-0.5 -0.05284845461 0.2)
(0.00117441010244 0.0388888888889 0.2)
(-0.00117441010245 -0.0668080203312 0.2)
(0.5 -0.05284845461 0.2)
);
blocks
(
// Block 0
hex (0 1 10 8 12 13 22 20)
square
(120 100 1)
simpleGrading
(2 0.02 1)

// Block 1
hex (1 2 11 10 13 14 23 22)
square
(70 100 1)
simpleGrading
(1 0.02 1)

// Block 2
hex (2 3 4 11 14 15 16 23)
square
(100 100 1)
simpleGrading
(100 0.02 1)

// Block 3
hex (11 4 5 6 23 16 17 18)
square
(100 100 1)
simpleGrading
(100 50 1)

// Block 4
hex (9 11 6 7 21 23 18 19)
square
(70 100 1)
simpleGrading
(1 50 1)

// Block 5
hex (8 9 7 0 20 21 19 12)
square
(120 100 1)
simpleGrading
(2 50 1)

);
edges
(
arc 0 7 (-5.65685424949 5.65685424949 0)
arc 0 1 (-5.65685424949 -5.65685424949 0)
arc 12 19 (-5.65685424949 5.65685424949 0.2)
arc 12 13 (-5.65685424949 -5.65685424949 0.2)
spline 8 10
(
(-0.5 -0.05284845461 -0.0)
(-0.499847619047 -0.0535301957113 -0.0)
(-0.499664886606 -0.0542034778436 -0.0)
(-0.499451838162 -0.0548682976187 -0.0)
(-0.499208511102 -0.0555246523703 -0.0)
(-0.498934944706 -0.0561725401521 -0.0)
(-0.498631180144 -0.0568119597362 -0.0)
(-0.49829726047 -0.057442910611 -0.0)
(-0.497933230615 -0.058065392981 -0.0)
(-0.497539137382 -0.0586794077653 -0.0)
(-0.497115029439 -0.0592849565972 -0.0)
(-0.496660957309 -0.0598820418243 -0.0)
(-0.496176973366 -0.0604706665083 -0.0)
(-0.495663131821 -0.0610508344257 -0.0)
(-0.495119488719 -0.0616225500681 -0.0)
(-0.494546101927 -0.0621858186437 -0.0)
(-0.493943031123 -0.0627406460782 -0.0)
(-0.493310337786 -0.0632870390167 -0.0)
(-0.492648085188 -0.0638250048253 -0.0)
(-0.491956338381 -0.0643545515935 -0.0)
(-0.491235164182 -0.0648756881365 -0.0)
(-0.490484631168 -0.065388423998 -0.0)
(-0.489704809658 -0.0658927694529 -0.0)
(-0.488895771702 -0.066388735511 -0.0)
(-0.488057591068 -0.06687633392 -0.0)
(-0.487190343229 -0.0673555771695 -0.0)
(-0.486294105345 -0.0678264784948 -0.0)
(-0.485368956256 -0.0682890518811 -0.0)
(-0.484414976459 -0.0687433120682 -0.0)
(-0.483432248099 -0.0691892745545 -0.0)
(-0.482420854952 -0.0696269556023 -0.0)
(-0.481380882408 -0.0700563722429 -0.0)
(-0.480312417455 -0.0704775422811 -0.0)
(-0.479215548665 -0.0708904843016 -0.0)
(-0.478090366175 -0.0712952176737 -0.0)
(-0.476936961671 -0.0716917625571 -0.0)
(-0.47575542837 -0.0720801399084 -0.0)
(-0.474545861006 -0.0724603714863 -0.0)
(-0.473308355808 -0.0728324798582 -0.0)
(-0.472043010484 -0.0731964884061 -0.0)
(-0.470749924203 -0.0735524213333 -0.0)
(-0.469429197579 -0.0739003036705 -0.0)
(-0.468080932647 -0.0742401612824 -0.0)
(-0.466705232851 -0.0745720208744 -0.0)
(-0.46530220302 -0.0748959099991 -0.0)
(-0.463871949352 -0.0752118570632 -0.0)
(-0.462414579397 -0.0755198913337 -0.0)
(-0.460930202031 -0.0758200429454 -0.0)
(-0.459418927445 -0.0761123429071 -0.0)
(-0.45788086712 -0.0763968231084 -0.0)
(-0.456316133812 -0.0766735163267 -0.0)
(-0.454724841529 -0.0769424562336 -0.0)
(-0.453107105515 -0.077203677402 -0.0)
(-0.451463042228 -0.0774572153122 -0.0)
(-0.449792769321 -0.0777031063587 -0.0)
(-0.448096405627 -0.0779413878569 -0.0)
(-0.446374071132 -0.0781720980489 -0.0)
(-0.444625886964 -0.0783952761104 -0.0)
(-0.442851975367 -0.0786109621564 -0.0)
(-0.441052459689 -0.0788191972475 -0.0)
(-0.439227464355 -0.0790200233955 -0.0)
(-0.437377114855 -0.0792134835694 -0.0)
(-0.435501537723 -0.0793996217009 -0.0)
(-0.433600860516 -0.0795784826893 -0.0)
(-0.431675211801 -0.0797501124075 -0.0)
(-0.42972472113 -0.0799145577061 -0.0)
(-0.42774951903 -0.0800718664187 -0.0)
(-0.425749736976 -0.080222087366 -0.0)
(-0.423725507383 -0.0803652703603 -0.0)
(-0.42167696358 -0.0805014662093 -0.0)
(-0.419604239798 -0.0806307267199 -0.0)
(-0.417507471154 -0.0807531047015 -0.0)
(-0.415386793629 -0.080868653969 -0.0)
(-0.413242344056 -0.0809774293459 -0.0)
(-0.411074260104 -0.0810794866664 -0.0)
(-0.408882680258 -0.0811748827777 -0.0)
(-0.406667743809 -0.0812636755416 -0.0)
(-0.404429590835 -0.0813459238362 -0.0)
(-0.402168362189 -0.0814216875564 -0.0)
(-0.399884199481 -0.081491027615 -0.0)
(-0.397577245067 -0.0815540059429 -0.0)
(-0.395247642033 -0.0816106854884 -0.0)
(-0.392895534184 -0.0816611302173 -0.0)
(-0.390521066028 -0.0817054051113 -0.0)
(-0.388124382765 -0.0817435761669 -0.0)
(-0.385705630274 -0.0817757103933 -0.0)
(-0.383264955104 -0.0818018758099 -0.0)
(-0.380802504456 -0.0818221414437 -0.0)
(-0.378318426179 -0.0818365773259 -0.0)
(-0.375812868755 -0.0818452544877 -0.0)
(-0.373285981288 -0.0818482449567 -0.0)
(-0.370737913498 -0.0818456217514 -0.0)
(-0.368168815709 -0.081837458876 -0.0)
(-0.365578838839 -0.081823831315 -0.0)
(-0.362968134394 -0.081804815026 -0.0)
(-0.360336854457 -0.0817804869336 -0.0)
(-0.357685151683 -0.0817509249213 -0.0)
(-0.355013179289 -0.0817162078239 -0.0)
(-0.352321091049 -0.0816764154187 -0.0)
(-0.349609041285 -0.0816316284164 -0.0)
(-0.346877184866 -0.0815819284515 -0.0)
(-0.344125677196 -0.0815273980721 -0.0)
(-0.341354674212 -0.0814681207289 -0.0)
(-0.33856433238 -0.0814041807637 -0.0)
(-0.335754808688 -0.0813356633979 -0.0)
(-0.332926260647 -0.0812626547196 -0.0)
(-0.330078846279 -0.0811852416704 -0.0)
(-0.327212724122 -0.0811035120318 -0.0)
(-0.324328053223 -0.0810175544111 -0.0)
(-0.321424993138 -0.080927458226 -0.0)
(-0.318503703928 -0.0808333136898 -0.0)
(-0.315564346156 -0.0807352117946 -0.0)
(-0.312607080891 -0.0806332442954 -0.0)
(-0.309632069703 -0.0805275036923 -0.0)
(-0.306639474665 -0.080418083213 -0.0)
(-0.303629458349 -0.0803050767942 -0.0)
(-0.300602183831 -0.080188579063 -0.0)
(-0.29755781469 -0.0800686853169 -0.0)
(-0.294496515007 -0.0799454915042 -0.0)
(-0.291418449369 -0.0798190942028 -0.0)
(-0.288323782868 -0.0796895905994 -0.0)
(-0.285212681107 -0.0795570784676 -0.0)
(-0.282085310197 -0.0794216561455 -0.0)
(-0.278941836763 -0.079283422513 -0.0)
(-0.275782427946 -0.079142476968 -0.0)
(-0.272607251407 -0.078998919403 -0.0)
(-0.269416475328 -0.0788528501804 -0.0)
(-0.266210268416 -0.0787043701073 -0.0)
(-0.262988799908 -0.0785535804106 -0.0)
(-0.259752239577 -0.0784005827105 -0.0)
(-0.25650075773 -0.0782454789943 -0.0)
(-0.253234525218 -0.0780883715895 -0.0)
(-0.249953713439 -0.0779293631364 -0.0)
(-0.246658494342 -0.0777685565601 -0.0)
(-0.243349040432 -0.0776060550427 -0.0)
(-0.240025524776 -0.0774419619941 -0.0)
(-0.236688121006 -0.077276381023 -0.0)
(-0.233337003328 -0.0771094159077 -0.0)
(-0.229972346524 -0.0769411705658 -0.0)
(-0.226594325958 -0.0767717490243 -0.0)
(-0.223203117583 -0.0766012553886 -0.0)
(-0.219798897946 -0.0764297938119 -0.0)
(-0.216381844192 -0.0762574684635 -0.0)
(-0.212952134073 -0.0760843834977 -0.0)
(-0.20950994595 -0.0759106430214 -0.0)
(-0.206055458802 -0.0757363510621 -0.0)
(-0.202588852229 -0.0755616115354 -0.0)
(-0.199110306459 -0.0753865282125 -0.0)
(-0.195620002353 -0.075211204687 -0.0)
(-0.192118121413 -0.0750357443419 -0.0)
(-0.188604845783 -0.0748602503161 -0.0)
(-0.185080358258 -0.0746848254712 -0.0)
(-0.181544842288 -0.0745095723575 -0.0)
(-0.177998481984 -0.0743345931803 -0.0)
(-0.174441462124 -0.0741599897661 -0.0)
(-0.170873968152 -0.0739858635284 -0.0)
(-0.167296186193 -0.0738123154338 -0.0)
(-0.163708303049 -0.0736394459674 -0.0)
(-0.160110506207 -0.0734673550991 -0.0)
(-0.156502983844 -0.0732961422492 -0.0)
(-0.15288592483 -0.073125906254 -0.0)
(-0.149259518731 -0.0729567453317 -0.0)
(-0.145623955817 -0.0727887570483 -0.0)
(-0.141979427058 -0.0726220382834 -0.0)
(-0.138326124137 -0.0724566851964 -0.0)
(-0.134664239443 -0.0722927931923 -0.0)
(-0.130993966083 -0.0721304568878 -0.0)
(-0.127315497878 -0.0719697700782 -0.0)
(-0.123629029367 -0.0718108257033 -0.0)
(-0.119934755812 -0.0716537158145 -0.0)
(-0.116232873195 -0.0714985315417 -0.0)
(-0.112523578224 -0.07134536306 -0.0)
(-0.108807068329 -0.0711942995577 -0.0)
(-0.105083541668 -0.0710454292035 -0.0)
(-0.101353197125 -0.0708988391146 -0.0)
(-0.0975767491611 -0.0707538133505 -0.0)
(-0.0937716337342 -0.0706075445089 -0.0)
(-0.0899605452633 -0.0704598386399 -0.0)
(-0.0861437061606 -0.0703107599181 -0.0)
(-0.082321339348 -0.0701603721706 -0.0)
(-0.0784936682471 -0.0700087388544 -0.0)
(-0.0746609167703 -0.0698559230331 -0.0)
(-0.0708233093103 -0.0697019873546 -0.0)
(-0.0669810707305 -0.0695469940285 -0.0)
(-0.0631344263543 -0.0693910048045 -0.0)
(-0.0592836019555 -0.0692340809506 -0.0)
(-0.0554288237474 -0.0690762832319 -0.0)
(-0.0515703183718 -0.06891767189 -0.0)
(-0.047708312889 -0.0687583066221 -0.0)
(-0.0438430347661 -0.0685982465616 -0.0)
(-0.0399747118664 -0.068437550258 -0.0)
(-0.0361035724376 -0.0682762756577 -0.0)
(-0.0322298451007 -0.0681144800857 -0.0)
(-0.0283537588387 -0.0679522202269 -0.0)
(-0.024475542984 -0.0677895521087 -0.0)
(-0.0205954272074 -0.067626531083 -0.0)
(-0.0167136415055 -0.0674632118101 -0.0)
(-0.0128304161889 -0.0672996482419 -0.0)
(-0.00894598186941 -0.0671358936061 -0.0)
(-0.00506056944812 -0.0669720003912 -0.0)
(-0.00117441010245 -0.0668080203312 -0.0)
)
spline 10 11
(
(-0.00117441010245 -0.0668080203312 -0.0)
(0.00271226472648 -0.0666440043915 -0.0)
(0.00659922334671 -0.0664800027554 -0.0)
(0.0104862338285 -0.0663160648108 -0.0)
(0.0143730640172 -0.0661522391371 -0.0)
(0.0182594815471 -0.0659885734939 -0.0)
(0.0221452538541 -0.0658251148089 -0.0)
(0.0260301481894 -0.0656619091671 -0.0)
(0.0299139316337 -0.0654990018005 -0.0)
(0.0337963711099 -0.0653364370781 -0.0)
(0.0376772333977 -0.065174258497 -0.0)
(0.0415562851472 -0.0650125086734 -0.0)
(0.0454332928933 -0.0648512293348 -0.0)
(0.0493080230691 -0.0646904613122 -0.0)
(0.0531802420208 -0.0645302445338 -0.0)
(0.0570497160219 -0.064370618018 -0.0)
(0.0609162112873 -0.0642116198681 -0.0)
(0.0647794939881 -0.0640532872672 -0.0)
(0.0686393302662 -0.0638956564734 -0.0)
(0.0724954862485 -0.0637387628162 -0.0)
(0.0763477280622 -0.0635826406929 -0.0)
(0.0801958218493 -0.0634273235656 -0.0)
(0.0840395337816 -0.0632728439599 -0.0)
(0.0878786300754 -0.063119233462 -0.0)
(0.0917128770067 -0.0629665227187 -0.0)