/*--------------------------------*- C++ -*----------------------------------*\
| =========                 |                                                 |
| \\      /  F ield         | OpenFOAM: The Open Source CFD Toolbox           |
|  \\    /   O peration     | Version:  5                                     |
|   \\  /    A nd           | Web:      www.OpenFOAM.org                      |
|    \\/     M anipulation  |                                                 |
\*---------------------------------------------------------------------------*/
FoamFile
{
    version     2.0;
    format      ascii;
    class       dictionary;
    location    "constant";
    object      dynamicMeshDict;
}

dynamicFvMesh      dynamicMotionSolverFvMesh;

motionSolverLibs ("libRBFMotionSolver.so");
motionSolver    RBFMotionSolver;
movingPatches (walls);
staticPatches (inlet outlet);
coarseningRatio 12;

includeStaticPatches   true;
frozenInterpolation    false;

interpolation
{
    RBF  Gauss;
    focalPoint (0 0 0);
    innerRadius 0.0;//5.0
    outerRadius 100;
    polynomials false;

    W2Coeffs
    {
        radius     1;
    }
    TPSCoeffs
    {
        radius     4;
    }
    GaussCoeffs
    {
        radius     0.5;
    }
    IMQBCoeffs
    {
        radius     0.1;
    }
}
