/*--------------------------------*- C++ -*----------------------------------*\
| =========                 |                                                 |
| \\      /  F ield         | OpenFOAM: The Open Source CFD Toolbox           |
|  \\    /   O peration     | Version:  2.2.2                                 |
|   \\  /    A nd           | Web:      www.OpenFOAM.org                      |
|    \\/     M anipulation  |                                                 |
\*---------------------------------------------------------------------------*/
FoamFile
{
    version     2.0;
    format      ascii;
    class       dictionary;
    location    "system";
    object      ITHACAdict;
}

// EigenValue solver, can be eigen or spectra
EigenSolver eigen;

// Number of modes to output and to use for projection
NmodesUout 30;
NmodesUproj 15;
NmodesPout 30;
NmodesPproj 15;
NmodesEout 30;
NmodesEproj 15;

// Output format to save market vectors.
OutPrecision 20;
OutType fixed;

// Distance between exported middle snapshots
middleStep 20;

// Specific problem of a stationary case
tolerance 5e-5;
maxIter 1000;

// Thresholds to stop the reduced SIMPLE algorithm
residualJumpLim 1e-10;
normalizedResidualLim 1e-10;

// Export Reduced Matrices
exportPython 1;
exportMatlab 1;
exportTxt 1;

// Inlet boundary conditions velocities.
online_velocities vel.txt;



